Version 4
SHEET 1 1180 680
WIRE 544 -176 496 -176
WIRE 672 -176 608 -176
WIRE 496 -80 496 -176
WIRE 544 -80 496 -80
WIRE 672 -80 672 -176
WIRE 672 -80 624 -80
WIRE 240 -64 112 -64
WIRE 576 0 560 0
WIRE 144 16 144 0
WIRE 112 32 112 -64
WIRE 128 32 112 32
WIRE 560 32 560 0
WIRE 240 48 240 -64
WIRE 240 48 192 48
WIRE 352 48 240 48
WIRE 496 48 496 -80
WIRE 496 48 432 48
WIRE 544 48 496 48
WIRE 0 64 -272 64
WIRE 128 64 80 64
WIRE 672 64 672 -80
WIRE 672 64 608 64
WIRE 752 64 672 64
WIRE 928 64 832 64
WIRE 544 80 464 80
WIRE 144 96 144 80
WIRE 560 112 560 96
WIRE 320 144 304 144
WIRE -272 160 -272 64
WIRE 304 160 304 144
WIRE -32 240 -48 240
WIRE -48 256 -48 240
WIRE 304 256 304 240
WIRE 368 256 304 256
WIRE 464 256 464 80
WIRE 464 256 368 256
WIRE -272 272 -272 240
WIRE 304 272 304 256
WIRE 368 288 368 256
WIRE -48 352 -48 336
WIRE 304 368 304 352
WIRE 368 368 368 352
WIRE 368 368 304 368
WIRE 304 384 304 368
FLAG 144 0 VC
FLAG 144 96 0
FLAG 576 0 VC
FLAG 304 384 0
FLAG 320 144 VC
FLAG -272 272 0
FLAG -48 352 0
FLAG -32 240 VC
FLAG 560 112 0
SYMBOL res 320 256 R180
WINDOW 0 36 76 Left 2
WINDOW 3 36 40 Left 2
SYMATTR InstName R3
SYMATTR Value 1.8K
SYMBOL res 320 368 R180
WINDOW 0 36 76 Left 2
WINDOW 3 36 40 Left 2
SYMATTR InstName R4
SYMATTR Value 3.2K
SYMBOL cap 352 288 R0
SYMATTR InstName C1
SYMATTR Value 0.1µ
SYMBOL voltage -272 144 R0
WINDOW 3 -362 -62 Left 2
WINDOW 123 0 0 Left 0
WINDOW 39 -130 8 Left 2
SYMATTR Value PULSE(2.5 1.9 0.1e-6 1e-8 1e-8 1e-6 1e-6 1)
SYMATTR SpiceLine Rser=200
SYMATTR InstName V1
SYMBOL voltage -48 240 R0
WINDOW 0 31 25 Left 2
WINDOW 123 0 0 Left 0
WINDOW 39 0 0 Left 0
SYMATTR InstName V2
SYMATTR Value 3.3
SYMBOL res 96 48 R90
WINDOW 0 0 56 VBottom 2
WINDOW 3 32 56 VTop 2
SYMATTR InstName R5
SYMATTR Value 100
SYMBOL res 448 32 R90
WINDOW 0 0 56 VBottom 2
WINDOW 3 32 56 VTop 2
SYMATTR InstName R8
SYMATTR Value 499
SYMBOL res 528 -64 R270
WINDOW 0 32 56 VTop 2
WINDOW 3 0 56 VBottom 2
SYMATTR InstName R10
SYMATTR Value 2.5K
SYMBOL res 848 48 R90
WINDOW 0 0 56 VBottom 2
WINDOW 3 32 56 VTop 2
SYMATTR InstName R11
SYMATTR Value 100
SYMBOL cap 544 -160 R270
WINDOW 0 32 32 VTop 2
WINDOW 3 0 32 VBottom 2
SYMATTR InstName C2
SYMATTR Value 2p
SYMBOL OpAmps\\ADA4807-2 160 48 R0
SYMATTR InstName U3
SYMBOL OpAmps\\ADA4807-2 576 64 R0
SYMATTR InstName U4
TEXT -392 40 Left 2 ;CCD ouput pulse
TEXT -392 368 Left 2 !.tran 0 2e-6 0 1e-8
